mescn
  PyMOL3.0          3D                             0

  8  8  0  0  0  0  0  0  0  0999 V2000
   11.5600   26.4600    5.9800 C   0  0  0  0  0  0  0  0  0  0  0  0
    9.4940   25.9700    3.9380 C   0  0  0  0  0  0  0  0  0  0  0  0
   12.0700   25.9400    6.8500 N   0  5  0  0  0  0  0  0  0  0  0  0
   10.7170   27.1590    4.5390 S   0  0  0  0  0  0  0  0  0  0  0  0
   11.8700   26.1500    6.5000 M   0  0  0  0  0  0  0  0  0  0  0  0
    8.9770   26.3920    3.0070 H   0  0  0  0  0  0  0  0  0  0  0  0
    8.7170   25.7800    4.7520 H   0  0  0  0  0  0  0  0  0  0  0  0
   10.0150   24.9900    3.6720 H   0  0  0  0  0  0  0  0  0  0  0  0
  1  3  1  0  0  0  0
  1  5  1  0  0  0  0
  2  4  1  0  0  0  0
  2  6  1  0  0  0  0
  2  7  1  0  0  0  0
  2  8  1  0  0  0  0
  3  5  1  0  0  0  0
  1  4  1  0  0  0  0
M  END
>  <pdb_header>
REMARK   Materials Studio PDB file
REMARK   Created:  Sat May 18 02:36:02 Pacific Standard Time 2019


$$$$
