bmi
  PyMOL3.0          3D                             0

 21 21  0  0  0  0  0  0  0  0999 V2000
    0.7270   -0.2900    0.4430 N   0  0  0  0  0  0  0  0  0  0  0  0
    1.6460   -0.9610   -0.3390 C   0  0  0  0  0  0  0  0  0  0  0  0
    2.6240   -0.0450   -0.6350 C   0  0  0  0  0  0  0  0  0  0  0  0
    2.3350    1.1690   -0.0590 N   0  0  0  0  0  0  0  0  0  0  0  0
    1.1980    0.9870    0.5750 C   0  0  0  0  0  0  0  0  0  0  0  0
   -0.5140   -0.8290    0.9950 C   0  0  0  0  0  0  0  0  0  0  0  0
    1.5260   -1.9990   -0.6000 H   0  0  0  0  0  0  0  0  0  0  0  0
    3.5170   -0.1930   -1.2220 H   0  0  0  0  0  0  0  0  0  0  0  0
    0.6690    1.7330    1.1500 H   0  0  0  0  0  0  0  0  0  0  0  0
   -0.2780   -1.7390    1.5540 H   0  0  0  0  0  0  0  0  0  0  0  0
   -1.5780   -1.1340   -0.0700 C   0  0  0  0  0  0  0  0  0  0  0  0
   -0.8840   -0.1000    1.7180 H   0  0  0  0  0  0  0  0  0  0  0  0
   -1.1790   -1.8860   -0.7580 H   0  0  0  0  0  0  0  0  0  0  0  0
   -2.0650    0.0810   -0.8730 C   0  0  0  0  0  0  0  0  0  0  0  0
   -2.4280   -1.6030    0.4400 H   0  0  0  0  0  0  0  0  0  0  0  0
   -2.6950   -0.2830   -1.6920 H   0  0  0  0  0  0  0  0  0  0  0  0
   -1.2070    0.5700   -1.3470 H   0  0  0  0  0  0  0  0  0  0  0  0
   -2.8570    1.1050   -0.0530 C   0  0  0  0  0  0  0  0  0  0  0  0
   -3.7320    0.6430    0.4180 H   0  0  0  0  0  0  0  0  0  0  0  0
   -3.2140    1.9200   -0.6870 H   0  0  0  0  0  0  0  0  0  0  0  0
   -2.2540    1.5550    0.7400 H   0  0  0  0  0  0  0  0  0  0  0  0
  1  2  4  0  0  0  0
  1  5  4  0  0  0  0
  1  6  1  0  0  0  0
  2  3  4  0  0  0  0
  2  7  1  0  0  0  0
  3  4  4  0  0  0  0
  3  8  1  0  0  0  0
  4  5  4  0  0  0  0
  5  9  1  0  0  0  0
  6 10  1  0  0  0  0
  6 11  1  0  0  0  0
  6 12  1  0  0  0  0
 11 13  1  0  0  0  0
 11 14  1  0  0  0  0
 11 15  1  0  0  0  0
 14 16  1  0  0  0  0
 14 17  1  0  0  0  0
 14 18  1  0  0  0  0
 18 19  1  0  0  0  0
 18 20  1  0  0  0  0
 18 21  1  0  0  0  0
M  END
>  <pdb_header>
TITLE      bmi-opt-charge
REMARK   1 File created by GaussView 5.0.9


$$$$
