etscn
  PyMOL3.0          3D                             0

 11 11  0  0  0  0  0  0  0  0999 V2000
    1.2790   -0.2040    0.5170 C   0  0  0  0  0  0  0  0  0  0  0  0
   -0.2300   -1.0270   -0.1860 S   0  0  0  0  0  0  0  0  0  0  0  0
   -1.3630    0.2220    0.0070 C   0  0  0  0  0  0  0  0  0  0  0  0
   -2.1610    1.0550    0.1240 N   0  0  0  0  0  0  0  0  0  0  0  0
    2.0100   -1.0150    0.5120 H   0  0  0  0  0  0  0  0  0  0  0  0
    1.0590    0.0470    1.5550 H   0  0  0  0  0  0  0  0  0  0  0  0
    1.7620    0.9980   -0.2800 C   0  0  0  0  0  0  0  0  0  0  0  0
    1.0130    1.7920   -0.2930 H   0  0  0  0  0  0  0  0  0  0  0  0
    1.9940    0.7250   -1.3120 H   0  0  0  0  0  0  0  0  0  0  0  0
    2.6690    1.4000    0.1810 H   0  0  0  0  0  0  0  0  0  0  0  0
   -1.8420    0.7210    0.0770 C   0  0  0  0  0  0  0  0  0  0  0  0
  1  2  1  0  0  0  0
  1  5  1  0  0  0  0
  1  6  1  0  0  0  0
  1  7  1  0  0  0  0
  2  3  1  0  0  0  0
  3  4  2  0  0  0  0
  3 11  1  0  0  0  0
  4 11  2  0  0  0  0
  7  8  1  0  0  0  0
  7  9  1  0  0  0  0
  7 10  1  0  0  0  0
M  END
>  <pdb_header>
TITLE      etscn-opt-charge
REMARK   1 File created by GaussView 5.0.9


$$$$
mescn
  PyMOL3.0          3D                             0

  8  8  0  0  0  0  0  0  0  0999 V2000
   11.5600   26.4600    5.9800 C   0  0  0  0  0  0  0  0  0  0  0  0
    9.4940   25.9700    3.9380 C   0  0  0  0  0  0  0  0  0  0  0  0
   12.0700   25.9400    6.8500 N   0  5  0  0  0  0  0  0  0  0  0  0
   10.7170   27.1590    4.5390 S   0  0  0  0  0  0  0  0  0  0  0  0
   11.8700   26.1500    6.5000 M   0  0  0  0  0  0  0  0  0  0  0  0
    8.9770   26.3920    3.0070 H   0  0  0  0  0  0  0  0  0  0  0  0
    8.7170   25.7800    4.7520 H   0  0  0  0  0  0  0  0  0  0  0  0
   10.0150   24.9900    3.6720 H   0  0  0  0  0  0  0  0  0  0  0  0
  1  3  1  0  0  0  0
  1  5  1  0  0  0  0
  2  4  1  0  0  0  0
  2  6  1  0  0  0  0
  2  7  1  0  0  0  0
  2  8  1  0  0  0  0
  3  5  1  0  0  0  0
  1  4  1  0  0  0  0
M  END
>  <pdb_header>
REMARK   Materials Studio PDB file
REMARK   Created:  Sat May 18 02:36:02 Pacific Standard Time 2019


$$$$
mi
  PyMOL3.0          3D                             0

 12 12  0  0  0  0  0  0  0  0999 V2000
    0.6100    0.0160    0.0000 N   0  0  0  0  0  0  0  0  0  0  0  0
   -0.2280    1.1130   -0.0000 C   0  0  0  0  0  0  0  0  0  0  0  0
   -1.5030    0.6070   -0.0000 C   0  0  0  0  0  0  0  0  0  0  0  0
   -1.4740   -0.7680    0.0000 N   0  0  0  0  0  0  0  0  0  0  0  0
   -0.1990   -1.0860    0.0000 C   0  0  0  0  0  0  0  0  0  0  0  0
    2.0640    0.0320   -0.0000 C   0  0  0  0  0  0  0  0  0  0  0  0
    0.1530    2.1220   -0.0000 H   0  0  0  0  0  0  0  0  0  0  0  0
   -2.4340    1.1520   -0.0000 H   0  0  0  0  0  0  0  0  0  0  0  0
    0.2040   -2.0880    0.0000 H   0  0  0  0  0  0  0  0  0  0  0  0
    2.4450    0.5370    0.8900 H   0  0  0  0  0  0  0  0  0  0  0  0
    2.4450    0.5370   -0.8900 H   0  0  0  0  0  0  0  0  0  0  0  0
    2.4270   -0.9960    0.0000 H   0  0  0  0  0  0  0  0  0  0  0  0
  1  2  4  0  0  0  0
  1  5  4  0  0  0  0
  1  6  1  0  0  0  0
  2  3  4  0  0  0  0
  2  7  1  0  0  0  0
  3  4  4  0  0  0  0
  3  8  1  0  0  0  0
  4  5  4  0  0  0  0
  5  9  1  0  0  0  0
  6 10  1  0  0  0  0
  6 11  1  0  0  0  0
  6 12  1  0  0  0  0
M  END
>  <pdb_header>
TITLE      mi-opt-charge
REMARK   1 File created by GaussView 5.0.9


$$$$
buscn
  PyMOL3.0          3D                             0

 17 17  0  0  0  0  0  0  0  0999 V2000
   -0.1800   -1.2520    0.6570 C   0  0  0  0  0  0  0  0  0  0  0  0
   -1.5490   -0.7240   -0.4930 S   0  0  0  0  0  0  0  0  0  0  0  0
   -1.8080    0.8740    0.0150 C   0  0  0  0  0  0  0  0  0  0  0  0
   -2.0350    1.9650    0.3360 N   0  0  0  0  0  0  0  0  0  0  0  0
   -0.3490   -2.3280    0.7460 H   0  0  0  0  0  0  0  0  0  0  0  0
   -0.3870   -0.7990    1.6270 H   0  0  0  0  0  0  0  0  0  0  0  0
    1.2330   -0.9590    0.1610 C   0  0  0  0  0  0  0  0  0  0  0  0
    1.6230    0.5210    0.1180 C   0  0  0  0  0  0  0  0  0  0  0  0
    1.3710   -1.4100   -0.8280 H   0  0  0  0  0  0  0  0  0  0  0  0
    1.9160   -1.4920    0.8370 H   0  0  0  0  0  0  0  0  0  0  0  0
    1.4580    0.9690    1.1050 H   0  0  0  0  0  0  0  0  0  0  0  0
    0.9650    1.0570   -0.5730 H   0  0  0  0  0  0  0  0  0  0  0  0
    3.0800    0.7300   -0.3050 C   0  0  0  0  0  0  0  0  0  0  0  0
    3.2640    0.3220   -1.3040 H   0  0  0  0  0  0  0  0  0  0  0  0
    3.7700    0.2390    0.3870 H   0  0  0  0  0  0  0  0  0  0  0  0
    3.3330    1.7930   -0.3300 H   0  0  0  0  0  0  0  0  0  0  0  0
   -1.9440    1.5290    0.2080 C   0  0  0  0  0  0  0  0  0  0  0  0
  1  2  1  0  0  0  0
  1  5  1  0  0  0  0
  1  6  1  0  0  0  0
  1  7  1  0  0  0  0
  2  3  1  0  0  0  0
  3  4  2  0  0  0  0
  3 17  1  0  0  0  0
  4 17  2  0  0  0  0
  7  8  1  0  0  0  0
  7  9  1  0  0  0  0
  7 10  1  0  0  0  0
  8 11  1  0  0  0  0
  8 12  1  0  0  0  0
  8 13  1  0  0  0  0
 13 14  1  0  0  0  0
 13 15  1  0  0  0  0
 13 16  1  0  0  0  0
M  END
>  <pdb_header>
TITLE      buscn-opt-charge
REMARK   1 File created by GaussView 5.0.9


$$$$
