buscn-2.mol
  ChemDraw05052416542D

  7  6  0  0  0  0  0  0  0  0999 V2000
    1.7529   -0.3054    0.0000 C   0  0  0  0  0  0  0  0  0  0  0  0
    2.5779   -0.3054    0.0000 N   0  0  0  0  0  0  0  0  0  0  0  0
    0.1488   -0.2779    0.0000 S   0  0  0  0  0  0  0  0  0  0  0  0
   -0.5656    0.1346    0.0000 C   0  0  0  0  0  0  0  0  0  0  0  0
   -1.2801   -0.2779    0.0000 C   0  0  0  0  0  0  0  0  0  0  0  0
   -1.8635    0.3054    0.0000 C   0  0  0  0  0  0  0  0  0  0  0  0
   -2.5779   -0.1071    0.0000 C   0  0  0  0  0  0  0  0  0  0  0  0
  1  2  3  0        0
  1  3  1  0        0
  3  4  1  0        0
  4  5  1  0        0
  5  6  1  0        0
  6  7  1  0        0
M  END
