etscn-2.mol
  ChemDraw05052416542D

  5  4  0  0  0  0  0  0  0  0999 V2000
    1.1040   -0.2200    0.0000 C   0  0  0  0  0  0  0  0  0  0  0  0
    1.9290   -0.2200    0.0000 N   0  0  0  0  0  0  0  0  0  0  0  0
   -0.5001   -0.1925    0.0000 S   0  0  0  0  0  0  0  0  0  0  0  0
   -1.2146    0.2200    0.0000 C   0  0  0  0  0  0  0  0  0  0  0  0
   -1.9290   -0.1925    0.0000 C   0  0  0  0  0  0  0  0  0  0  0  0
  1  2  3  0        0
  1  3  1  0        0
  3  4  1  0        0
  4  5  1  0        0
M  END
