mescn-2.mol
  ChemDraw05052416442D

  4  3  0  0  0  0  0  0  0  0999 V2000
    0.7468   -0.2200    0.0000 C   0  0  0  0  0  0  0  0  0  0  0  0
    1.5718   -0.2200    0.0000 N   0  0  0  0  0  0  0  0  0  0  0  0
   -0.8573   -0.1925    0.0000 S   0  0  0  0  0  0  0  0  0  0  0  0
   -1.5718    0.2200    0.0000 C   0  0  0  0  0  0  0  0  0  0  0  0
  1  2  3  0        0
  1  3  1  0        0
  3  4  1  0        0
M  END
