etscn
  PyMOL3.0          3D                             0

 11 11  0  0  0  0  0  0  0  0999 V2000
    1.2790   -0.2040    0.5170 C   0  0  0  0  0  0  0  0  0  0  0  0
   -0.2300   -1.0270   -0.1860 S   0  0  0  0  0  0  0  0  0  0  0  0
   -1.3630    0.2220    0.0070 C   0  0  0  0  0  0  0  0  0  0  0  0
   -2.1610    1.0550    0.1240 N   0  0  0  0  0  0  0  0  0  0  0  0
    2.0100   -1.0150    0.5120 H   0  0  0  0  0  0  0  0  0  0  0  0
    1.0590    0.0470    1.5550 H   0  0  0  0  0  0  0  0  0  0  0  0
    1.7620    0.9980   -0.2800 C   0  0  0  0  0  0  0  0  0  0  0  0
    1.0130    1.7920   -0.2930 H   0  0  0  0  0  0  0  0  0  0  0  0
    1.9940    0.7250   -1.3120 H   0  0  0  0  0  0  0  0  0  0  0  0
    2.6690    1.4000    0.1810 H   0  0  0  0  0  0  0  0  0  0  0  0
   -1.8420    0.7210    0.0770 C   0  0  0  0  0  0  0  0  0  0  0  0
  1  2  1  0  0  0  0
  1  5  1  0  0  0  0
  1  6  1  0  0  0  0
  1  7  1  0  0  0  0
  2  3  1  0  0  0  0
  3  4  2  0  0  0  0
  3 11  1  0  0  0  0
  4 11  2  0  0  0  0
  7  8  1  0  0  0  0
  7  9  1  0  0  0  0
  7 10  1  0  0  0  0
M  END
>  <pdb_header>
TITLE      etscn-opt-charge
REMARK   1 File created by GaussView 5.0.9


$$$$
